
Circuit: ********************************************************************************

Doing analysis at TEMP = 27.000000 and TNOM = 27.000000

No. of Data Columns : 64  

Initial Transient Solution
--------------------------

Node                                   Voltage
----                                   -------
13                                     21.6869
5                                      21.6869
2                                      21.6869
9                                        24.05
3                                        24.05
11                                        0.05
4                                         0.05
10                                       24.05
6                                        24.05
12                                        0.05
7                                         0.05
1                                           24
8                                           24
x1.9                                        24
x1.7                                     24.05
x1.8                                   21.6869
x1.4                                         0
x1.5                                -0.0500004
x1.10                               -0.0500004
x1.11                               -0.0500004
x1.6                                -0.0500004
x2.9                                   21.6869
x2.7                                      0.05
x2.8                                9.2701e-14
x2.4                                         0
x2.5                                   21.6369
x2.10                                  21.6369
x2.11                                  21.6369
x2.6                                   21.6369
x3.9                                        24
x3.7                                     24.05
x3.8                                   21.6869
x3.4                                         0
x3.5                                -0.0500004
x3.10                               -0.0500004
x3.11                               -0.0500004
x3.6                                -0.0500004
x4.9                                   21.6869
x4.7                                      0.05
x4.8                                9.2701e-14
x4.4                                         0
x4.5                                   21.6369
x4.10                                  21.6369
x4.11                                  21.6369
x4.6                                   21.6369
v.x4.vfi1#branch                             0
v.x4.vfi2#branch                   2.16369e-11
v.x3.vfi1#branch                             0
v.x3.vfi2#branch                  -5.00004e-14
v.x2.vfi1#branch                             0
v.x2.vfi2#branch                   2.16369e-11
v.x1.vfi1#branch                             0
v.x1.vfi2#branch                  -5.00004e-14
l1#branch                          1.51701e-12
e.x4.ev16#branch                  -2.64912e-10
e.x3.ev16#branch                    2.4917e-08
e.x2.ev16#branch                  -2.64905e-10
e.x1.ev16#branch                    2.4917e-08
v5#branch                          2.16369e-11
v4#branch                          2.16369e-11
v3#branch                         -5.01821e-14
v2#branch                         -5.01821e-14
v1#branch                         -4.33742e-05


No. of Data Rows : 400179
.print line ignored since rawfile was produced.
CPU time since last call: 10.024 seconds.

Total CPU time: 10.024 seconds.

Total DRAM available = 7897.742188 MB.
DRAM currently available = 4191.960938 MB.
Total ngspice program size = 14.784180 MB.
Resident set size = 2.039062 MB.
Shared ngspice pages = 1.772461 MB.
Text (code) pages = 1.333008 MB.
Stack = 0 bytes.
Library pages = 276.000 kB.

